data_Crystal
_audit_creation_method         'generated by CrystalMaker X for Windows'
_cell_length_a                   8.930000
_cell_length_b                  12.720000
_cell_length_c                   8.900000
_cell_angle_alpha               90.000000
_cell_angle_beta                90.000000
_cell_angle_gamma               90.000000

_symmetry_space_group_name_H-M     'P n m a'

loop_
_symmetry_equiv_pos_as_xyz
'+x,+y,+z'
'1/2-x,-y,1/2+z'
'-x,1/2+y,-z'
'1/2+x,1/2-y,1/2-z'
'-x,-y,-z'
'1/2+x,+y,1/2-z'
'+x,1/2-y,+z'
'1/2-x,1/2+y,1/2+z'

loop_
_atom_site_label
_atom_site_type_symbol
_atom_site_occupancy
_atom_site_fract_x
_atom_site_fract_y
_atom_site_fract_z
 Site1  Pb 1.0  0.5  0.0  0.0
 Site2  I 1.0  0.49  0.25  0.0
 Site3  I 1.0  0.24  0.0  0.24
 Site4  C 1.0  1.0  0.25  0.0
 Site5  N 1.0  1.0  0.75  0.0

